!- ---------------------------------------------------------------------------------------------------------
!- The Residential Prototype Building Models were developed by Pacific Northwest National Laboratory (PNNL),
!- under contract with the U.S. Department of Energy (DOE).
!- The purpose of developing these building prototype models is to measure energy saving impacts from
!- various residential energy codes. Detailed model development descriptions are documented in the following PNNL reports:
!-
!- 1. Salcido V.R., Y. Chen, and Y. Xie. 2021. Energy Savings Analysis: 2021 IECC for Residential Buildings. PNNL-31018. Richland, WA: Pacific Northwest National Laboratory.
!- 2. Taylor T, Mendon V, Zhao M, Liu B. Energy Savings Analysis: 2018 IECC for Residential Buildings. Richland, WA: Pacific Northwest National Laboratory.
!- 3. Mendon V.V., A. Selvacanabady, M. Zhao, and Z.T. Taylor. 2015. National Cost-Effectiveness Analysis of the Residential Provisions of the 2015 IECC. PNNL-24240. Richland, WA: Pacific Northwest National Laboratory.
!- 4. Lucas R.G., V.V. Mendon, and S. Goel. 2012. Energy Use Savings for a Typical New Residential Dwelling Unit Based on the 2009 and 2012 IECC as Compared to the 2006 IECC. PNNL-SA-88603. Richland, WA: Pacific Northwest National Laboratory.
!-
!- ---------------------------------------------------------------------------------------------------------
! GPARM parameters as run:
!    ID = US+MF+CZ7+elecres+crawlspace+IECC_2021
!    weatherfile = USA_MN_International.Falls.Intl.AP.727470_TMY3.epw
!    climate_zone = Climate Zone 7
!    moisture_regime =
!    humidity_designation = Not Warm-Humid
!    tropical_designation = Not Tropical
!    bldg_type = Multifamily
!    fndn_type = Crawlspace
!    system_tag = Electric Furnace
!    code = IECC_2021
!    permits = 18.3364107698274
!    vent_fan_efficacy = 1.4
!    cfm25 = 4
!    afn_control =
!    is_duct_base =
!    leakage_ratio = 0.0792
!    dhw_type =
!    TEMPLATE_PATH = template/v9.5

  Version,22.1;

!-   ===========  ALL OBJECTS IN CLASS: GLOBALGEOMETRYRULES ===========

  GlobalGeometryRules,
    LowerLeftCorner,         !- Starting Vertex Position
    Counterclockwise,        !- Vertex Entry Direction
    Relative;                !- Coordinate System

!- Geometry from the scalable geometry template

  BuildingSurface:Detailed,
    BGFloor,                 !- Name
    Floor,                   !- Surface Type
    Interior Floor,          !- Construction Name
    crawlspace,              !- Zone Name
    ,                        !- Space Name
    Ground,                  !- Outside Boundary Condition
    ,                        !- Outside Boundary Condition Object
    NoSun,                   !- Sun Exposure
    NoWind,                  !- Wind Exposure
    ,                        !- View Factor to Ground
    4,                       !- Number of Vertices
    36.536888727945,0.000000000000,-0.609756097560976,  !- X,Y,Z ==> Vertex 1 {m}
    0.000000000000,0.000000000000,-0.609756097560976,  !- X,Y,Z ==> Vertex 2 {m}
    0.000000000000,19.817000000000,-0.609756097560976,  !- X,Y,Z ==> Vertex 3 {m}
    36.536888727945,19.817000000000,-0.609756097560976;  !- X,Y,Z ==> Vertex 4 {m}

  Zone,
    crawlspace,              !- Name
    0.0,                     !- Direction of Relative North {deg}
    0.0,                     !- X Origin {m}
    0.0,                     !- Y Origin {m}
    0.0,                     !- Z Origin {m}
    ,                        !- Type
    1;                       !- Multiplier

  !

  BuildingSurface:Detailed,
    BGWall_upper_ldf,        !- Name
    Wall,                    !- Surface Type
    Crawl Wall,              !- Construction Name
    crawlspace,              !- Zone Name
    ,                        !- Space Name
    Outdoors,                !- Outside Boundary Condition
    ,                        !- Outside Boundary Condition Object
    SunExposed,              !- Sun Exposure
    WindExposed,             !- Wind Exposure
    ,                        !- View Factor to Ground
    4,                       !- Number of Vertices
    0.000000000000,0.000000000000,0.000000000000,  !- X,Y,Z ==> Vertex 1 {m}
    36.536888727945,0.000000000000,0.000000000000,  !- X,Y,Z ==> Vertex 2 {m}
    36.536888727945,0.000000000000,0.152439024390,  !- X,Y,Z ==> Vertex 3 {m}
    0.000000000000,0.000000000000,0.152439024390;  !- X,Y,Z ==> Vertex 4 {m}

  !

  BuildingSurface:Detailed,
    BGWall_lower_ldf,        !- Name
    Wall,                    !- Surface Type
    Crawl Wall,              !- Construction Name
    crawlspace,              !- Zone Name
    ,                        !- Space Name
    Ground,                  !- Outside Boundary Condition
    ,                        !- Outside Boundary Condition Object
    NoSun,                   !- Sun Exposure
    NoWind,                  !- Wind Exposure
    ,                        !- View Factor to Ground
    4,                       !- Number of Vertices
    0.000000000000,0.000000000000,-0.609756097560976,  !- X,Y,Z ==> Vertex 1 {m}
    36.536888727945,0.000000000000,-0.609756097560976,  !- X,Y,Z ==> Vertex 2 {m}
    36.536888727945,0.000000000000,0.000000000000,  !- X,Y,Z ==> Vertex 3 {m}
    0.000000000000,0.000000000000,0.000000000000;  !- X,Y,Z ==> Vertex 4 {m}

  !

  BuildingSurface:Detailed,
    BGWall_upper_sdr,        !- Name
    Wall,                    !- Surface Type
    Crawl Wall,              !- Construction Name
    crawlspace,              !- Zone Name
    ,                        !- Space Name
    Outdoors,                !- Outside Boundary Condition
    ,                        !- Outside Boundary Condition Object
    SunExposed,              !- Sun Exposure
    WindExposed,             !- Wind Exposure
    ,                        !- View Factor to Ground
    4,                       !- Number of Vertices
    36.536888727945,0.000000000000,0.000000000000,  !- X,Y,Z ==> Vertex 1 {m}
    36.536888727945,19.838620182722,0.000000000000,  !- X,Y,Z ==> Vertex 2 {m}
    36.536888727945,19.838620182722,0.152439024390,  !- X,Y,Z ==> Vertex 3 {m}
    36.536888727945,0.000000000000,0.152439024390;  !- X,Y,Z ==> Vertex 4 {m}

  !

  BuildingSurface:Detailed,
    BGWall_lower_sdr,        !- Name
    Wall,                    !- Surface Type
    Crawl Wall,              !- Construction Name
    crawlspace,              !- Zone Name
    ,                        !- Space Name
    Ground,                  !- Outside Boundary Condition
    ,                        !- Outside Boundary Condition Object
    NoSun,                   !- Sun Exposure
    NoWind,                  !- Wind Exposure
    ,                        !- View Factor to Ground
    4,                       !- Number of Vertices
    36.536888727945,0.000000000000,-0.609756097560976,  !- X,Y,Z ==> Vertex 1 {m}
    36.536888727945,19.838620182722,-0.609756097560976,  !- X,Y,Z ==> Vertex 2 {m}
    36.536888727945,19.838620182722,0.000000000000,  !- X,Y,Z ==> Vertex 3 {m}
    36.536888727945,0.000000000000,0.000000000000;  !- X,Y,Z ==> Vertex 4 {m}

  !

  BuildingSurface:Detailed,
    BGWall_upper_ldb,        !- Name
    Wall,                    !- Surface Type
    Crawl Wall,              !- Construction Name
    crawlspace,              !- Zone Name
    ,                        !- Space Name
    Outdoors,                !- Outside Boundary Condition
    ,                        !- Outside Boundary Condition Object
    SunExposed,              !- Sun Exposure
    WindExposed,             !- Wind Exposure
    ,                        !- View Factor to Ground
    4,                       !- Number of Vertices
    36.536888727945,19.838620182722,0.000000000000,  !- X,Y,Z ==> Vertex 1 {m}
    0.000000000000,19.838620182722,0.000000000000,  !- X,Y,Z ==> Vertex 2 {m}
    0.000000000000,19.838620182722,0.152439024390,  !- X,Y,Z ==> Vertex 3 {m}
    36.536888727945,19.838620182722,0.152439024390;  !- X,Y,Z ==> Vertex 4 {m}

  !

  BuildingSurface:Detailed,
    BGWall_lower_ldb,        !- Name
    Wall,                    !- Surface Type
    Crawl Wall,              !- Construction Name
    crawlspace,              !- Zone Name
    ,                        !- Space Name
    Ground,                  !- Outside Boundary Condition
    ,                        !- Outside Boundary Condition Object
    NoSun,                   !- Sun Exposure
    NoWind,                  !- Wind Exposure
    ,                        !- View Factor to Ground
    4,                       !- Number of Vertices
    36.536888727945,19.838620182722,-0.609756097560976,  !- X,Y,Z ==> Vertex 1 {m}
    0.000000000000,19.838620182722,-0.609756097560976,  !- X,Y,Z ==> Vertex 2 {m}
    0.000000000000,19.838620182722,0.000000000000,  !- X,Y,Z ==> Vertex 3 {m}
    36.536888727945,19.838620182722,0.000000000000;  !- X,Y,Z ==> Vertex 4 {m}

  !

  BuildingSurface:Detailed,
    BGWall_upper_sdl,        !- Name
    Wall,                    !- Surface Type
    Crawl Wall,              !- Construction Name
    crawlspace,              !- Zone Name
    ,                        !- Space Name
    Outdoors,                !- Outside Boundary Condition
    ,                        !- Outside Boundary Condition Object
    SunExposed,              !- Sun Exposure
    WindExposed,             !- Wind Exposure
    ,                        !- View Factor to Ground
    4,                       !- Number of Vertices
    0.000000000000,19.838620182722,0.000000000000,  !- X,Y,Z ==> Vertex 1 {m}
    0.000000000000,0.000000000000,0.000000000000,  !- X,Y,Z ==> Vertex 2 {m}
    0.000000000000,0.000000000000,0.152439024390,  !- X,Y,Z ==> Vertex 3 {m}
    0.000000000000,19.838620182722,0.152439024390;  !- X,Y,Z ==> Vertex 4 {m}

  !

  BuildingSurface:Detailed,
    BGWall_lower_sdl,        !- Name
    Wall,                    !- Surface Type
    Crawl Wall,              !- Construction Name
    crawlspace,              !- Zone Name
    ,                        !- Space Name
    Ground,                  !- Outside Boundary Condition
    ,                        !- Outside Boundary Condition Object
    NoSun,                   !- Sun Exposure
    NoWind,                  !- Wind Exposure
    ,                        !- View Factor to Ground
    4,                       !- Number of Vertices
    0.000000000000,19.838620182722,-0.609756097560976,  !- X,Y,Z ==> Vertex 1 {m}
    0.000000000000,0.000000000000,-0.609756097560976,  !- X,Y,Z ==> Vertex 2 {m}
    0.000000000000,0.000000000000,0.000000000000,  !- X,Y,Z ==> Vertex 3 {m}
    0.000000000000,19.838620182722,0.000000000000;  !- X,Y,Z ==> Vertex 4 {m}

!- 4.95426829268293 = 16.25/3.28; # 6/12 roof pitch for MF..3/12/2012
!-   ===========  ALL OBJECTS IN CLASS: ZONE ===========
  !-   ===========  ALL OBJECTS IN CLASS: ZONE ===========

  Zone,
    Breezeway,               !- Name
    0.0,                     !- Direction of Relative North {deg}
    0.0,                     !- X Origin {m}
    0.0,                     !- Y Origin {m}
    0.0,                     !- Z Origin {m}
    ,                        !- Type
    1;                       !- Multiplier

  Zone,
    living_unit1_FrontRow_BottomFloor,  !- Name
    0.0,                     !- Direction of Relative North {deg}
    0.0,                     !- X Origin {m}
    0.0,                     !- Y Origin {m}
    0.0,                     !- Z Origin {m}
    ,                        !- Type
    1;                       !- Multiplier

  Zone,
    living_unit2_FrontRow_BottomFloor,  !- Name
    0.0,                     !- Direction of Relative North {deg}
    0.0,                     !- X Origin {m}
    0.0,                     !- Y Origin {m}
    0.0,                     !- Z Origin {m}
    ,                        !- Type
    1;                       !- Multiplier

  Zone,
    living_unit3_FrontRow_BottomFloor,  !- Name
    0.0,                     !- Direction of Relative North {deg}
    0.0,                     !- X Origin {m}
    0.0,                     !- Y Origin {m}
    0.0,                     !- Z Origin {m}
    ,                        !- Type
    1;                       !- Multiplier

  Zone,
    living_unit1_BackRow_BottomFloor,  !- Name
    0.0,                     !- Direction of Relative North {deg}
    0.0,                     !- X Origin {m}
    0.0,                     !- Y Origin {m}
    0.0,                     !- Z Origin {m}
    ,                        !- Type
    1;                       !- Multiplier

  Zone,
    living_unit2_BackRow_BottomFloor,  !- Name
    0.0,                     !- Direction of Relative North {deg}
    0.0,                     !- X Origin {m}
    0.0,                     !- Y Origin {m}
    0.0,                     !- Z Origin {m}
    ,                        !- Type
    1;                       !- Multiplier

  Zone,
    living_unit3_BackRow_BottomFloor,  !- Name
    0.0,                     !- Direction of Relative North {deg}
    0.0,                     !- X Origin {m}
    0.0,                     !- Y Origin {m}
    0.0,                     !- Z Origin {m}
    ,                        !- Type
    1;                       !- Multiplier

  Zone,
    living_unit1_FrontRow_MiddleFloor,  !- Name
    0.0,                     !- Direction of Relative North {deg}
    0.0,                     !- X Origin {m}
    0.0,                     !- Y Origin {m}
    0.0,                     !- Z Origin {m}
    ,                        !- Type
    1;                       !- Multiplier

  Zone,
    living_unit2_FrontRow_MiddleFloor,  !- Name
    0.0,                     !- Direction of Relative North {deg}
    0.0,                     !- X Origin {m}
    0.0,                     !- Y Origin {m}
    0.0,                     !- Z Origin {m}
    ,                        !- Type
    1;                       !- Multiplier

  Zone,
    living_unit3_FrontRow_MiddleFloor,  !- Name
    0.0,                     !- Direction of Relative North {deg}
    0.0,                     !- X Origin {m}
    0.0,                     !- Y Origin {m}
    0.0,                     !- Z Origin {m}
    ,                        !- Type
    1;                       !- Multiplier

  Zone,
    living_unit1_BackRow_MiddleFloor,  !- Name
    0.0,                     !- Direction of Relative North {deg}
    0.0,                     !- X Origin {m}
    0.0,                     !- Y Origin {m}
    0.0,                     !- Z Origin {m}
    ,                        !- Type
    1;                       !- Multiplier

  Zone,
    living_unit2_BackRow_MiddleFloor,  !- Name
    0.0,                     !- Direction of Relative North {deg}
    0.0,                     !- X Origin {m}
    0.0,                     !- Y Origin {m}
    0.0,                     !- Z Origin {m}
    ,                        !- Type
    1;                       !- Multiplier

  Zone,
    living_unit3_BackRow_MiddleFloor,  !- Name
    0.0,                     !- Direction of Relative North {deg}
    0.0,                     !- X Origin {m}
    0.0,                     !- Y Origin {m}
    0.0,                     !- Z Origin {m}
    ,                        !- Type
    1;                       !- Multiplier

  Zone,
    attic,                   !- Name
    0.0,                     !- Direction of Relative North {deg}
    -41.122974,              !- X Origin {m}
    15.731187,               !- Y Origin {m}
    0.0,                     !- Z Origin {m}
    ,                        !- Type
    1;                       !- Multiplier

  Zone,
    living_unit3_BackRow_TopFloor,  !- Name
    0.0,                     !- Direction of Relative North {deg}
    0.0,                     !- X Origin {m}
    0.0,                     !- Y Origin {m}
    0.0,                     !- Z Origin {m}
    ,                        !- Type
    1;                       !- Multiplier

  Zone,
    living_unit3_FrontRow_TopFloor,  !- Name
    0.0,                     !- Direction of Relative North {deg}
    0.0,                     !- X Origin {m}
    0.0,                     !- Y Origin {m}
    0.0,                     !- Z Origin {m}
    ,                        !- Type
    1;                       !- Multiplier

  Zone,
    living_unit1_FrontRow_TopFloor,  !- Name
    0.0,                     !- Direction of Relative North {deg}
    0.0,                     !- X Origin {m}
    0.0,                     !- Y Origin {m}
    0.0,                     !- Z Origin {m}
    ,                        !- Type
    1;                       !- Multiplier

  Zone,
    living_unit2_BackRow_TopFloor,  !- Name
    0.0,                     !- Direction of Relative North {deg}
    0.0,                     !- X Origin {m}
    0.0,                     !- Y Origin {m}
    0.0,                     !- Z Origin {m}
    ,                        !- Type
    1;                       !- Multiplier

  !

  Zone,
    living_unit2_FrontRow_TopFloor,  !- Name
    0.0,                     !- Direction of Relative North {deg}
    0.0,                     !- X Origin {m}
    0.0,                     !- Y Origin {m}
    0.0,                     !- Z Origin {m}
    ,                        !- Type
    1;                       !- Multiplier

  Zone,
    living_unit1_BackRow_TopFloor,  !- Name
    0.0,                     !- Direction of Relative North {deg}
    0.0,                     !- X Origin {m}
    0.0,                     !- Y Origin {m}
    0.0,                     !- Z Origin {m}
    ,                        !- Type
    1;                       !- Multiplier

  !-   ===========  ALL OBJECTS IN CLASS: BUILDINGSURFACE:DETAILED ===========
  !
  !
  !

  BuildingSurface:Detailed,
    Wall_ldf_1.unit1_FrontRow_BottomFloor,  !- Name
    Wall,                    !- Surface Type
    Exterior Wall,           !- Construction Name
    living_unit1_FrontRow_BottomFloor,  !- Zone Name
    ,                        !- Space Name
    Outdoors,                !- Outside Boundary Condition
    ,                        !- Outside Boundary Condition Object
    SunExposed,              !- Sun Exposure
    WindExposed,             !- Wind Exposure
    ,                        !- View Factor to Ground
    4,                       !- Number of Vertices
    0.000000000000,0.000000000000,0.152439024390,  !- X,Y,Z ==> Vertex 1 {m}
    12.178962909315,0.000000000000,0.152439024390,  !- X,Y,Z ==> Vertex 2 {m}
    12.178962909315,0.000000000000,2.743902439024,  !- X,Y,Z ==> Vertex 3 {m}
    0.000000000000,0.000000000000,2.743902439024;  !- X,Y,Z ==> Vertex 4 {m}

  !

  BuildingSurface:Detailed,
    Wall_ldb_1.unit1_FrontRow_BottomFloor,  !- Name
    Wall,                    !- Surface Type
    Exterior Wall,           !- Construction Name
    living_unit1_FrontRow_BottomFloor,  !- Zone Name
    ,                        !- Space Name
    Outdoors,                !- Outside Boundary Condition
    ,                        !- Outside Boundary Condition Object
    SunExposed,              !- Sun Exposure
    WindExposed,             !- Wind Exposure
    ,                        !- View Factor to Ground
    4,                       !- Number of Vertices
    12.178962909315,9.157114969410,0.152439024390,  !- X,Y,Z ==> Vertex 1 {m}
    0.000000000000,9.157114969410,0.152439024390,  !- X,Y,Z ==> Vertex 2 {m}
    0.000000000000,9.157114969410,2.743902439024,  !- X,Y,Z ==> Vertex 3 {m}
    12.178962909315,9.157114969410,2.743902439024;  !- X,Y,Z ==> Vertex 4 {m}

  !

  BuildingSurface:Detailed,
    Wall_sdl_1.unit1_FrontRow_BottomFloor,  !- Name
    Wall,                    !- Surface Type
    Exterior Wall,           !- Construction Name
    living_unit1_FrontRow_BottomFloor,  !- Zone Name
    ,                        !- Space Name
    Outdoors,                !- Outside Boundary Condition
    ,                        !- Outside Boundary Condition Object
    SunExposed,              !- Sun Exposure
    WindExposed,             !- Wind Exposure
    ,                        !- View Factor to Ground
    4,                       !- Number of Vertices
    0.000000000000,9.157114969410,0.152439024390,  !- X,Y,Z ==> Vertex 1 {m}
    0.000000000000,0.000000000000,0.152439024390,  !- X,Y,Z ==> Vertex 2 {m}
    0.000000000000,0.000000000000,2.743902439024,  !- X,Y,Z ==> Vertex 3 {m}
    0.000000000000,9.157114969410,2.743902439024;  !- X,Y,Z ==> Vertex 4 {m}

  !

  BuildingSurface:Detailed,
    Wall_ldf_1.unit2_FrontRow_BottomFloor,  !- Name
    Wall,                    !- Surface Type
    Exterior Wall,           !- Construction Name
    living_unit2_FrontRow_BottomFloor,  !- Zone Name
    ,                        !- Space Name
    Outdoors,                !- Outside Boundary Condition
    ,                        !- Outside Boundary Condition Object
    SunExposed,              !- Sun Exposure
    WindExposed,             !- Wind Exposure
    ,                        !- View Factor to Ground
    4,                       !- Number of Vertices
    12.178962909315,0.000000000000,0.152439024390,  !- X,Y,Z ==> Vertex 1 {m}
    24.357925818630,0.000000000000,0.152439024390,  !- X,Y,Z ==> Vertex 2 {m}
    24.357925818630,0.000000000000,2.743902439024,  !- X,Y,Z ==> Vertex 3 {m}
    12.178962909315,0.000000000000,2.743902439024;  !- X,Y,Z ==> Vertex 4 {m}

  !

  BuildingSurface:Detailed,
    Wall_ldb_1.unit2_FrontRow_BottomFloor,  !- Name
    Wall,                    !- Surface Type
    Exterior Wall,           !- Construction Name
    living_unit2_FrontRow_BottomFloor,  !- Zone Name
    ,                        !- Space Name
    Outdoors,                !- Outside Boundary Condition
    ,                        !- Outside Boundary Condition Object
    SunExposed,              !- Sun Exposure
    WindExposed,             !- Wind Exposure
    ,                        !- View Factor to Ground
    4,                       !- Number of Vertices
    24.357925818630,9.157114969410,0.152439024390,  !- X,Y,Z ==> Vertex 1 {m}
    12.178962909315,9.157114969410,0.152439024390,  !- X,Y,Z ==> Vertex 2 {m}
    12.178962909315,9.157114969410,2.743902439024,  !- X,Y,Z ==> Vertex 3 {m}
    24.357925818630,9.157114969410,2.743902439024;  !- X,Y,Z ==> Vertex 4 {m}

  !

  BuildingSurface:Detailed,
    Wall_ldf_1.unit3_FrontRow_BottomFloor,  !- Name
    Wall,                    !- Surface Type
    Exterior Wall,           !- Construction Name
    living_unit3_FrontRow_BottomFloor,  !- Zone Name
    ,                        !- Space Name
    Outdoors,                !- Outside Boundary Condition
    ,                        !- Outside Boundary Condition Object
    SunExposed,              !- Sun Exposure
    WindExposed,             !- Wind Exposure
    ,                        !- View Factor to Ground
    4,                       !- Number of Vertices
    24.357925818630,0.000000000000,0.152439024390,  !- X,Y,Z ==> Vertex 1 {m}
    36.536888727945,0.000000000000,0.152439024390,  !- X,Y,Z ==> Vertex 2 {m}
    36.536888727945,0.000000000000,2.743902439024,  !- X,Y,Z ==> Vertex 3 {m}
    24.357925818630,0.000000000000,2.743902439024;  !- X,Y,Z ==> Vertex 4 {m}

  !

  BuildingSurface:Detailed,
    Wall_sdr_1.unit3_FrontRow_BottomFloor,  !- Name
    Wall,                    !- Surface Type
    Exterior Wall,           !- Construction Name
    living_unit3_FrontRow_BottomFloor,  !- Zone Name
    ,                        !- Space Name
    Outdoors,                !- Outside Boundary Condition
    ,                        !- Outside Boundary Condition Object
    SunExposed,              !- Sun Exposure
    WindExposed,             !- Wind Exposure
    ,                        !- View Factor to Ground
    4,                       !- Number of Vertices
    36.536888727945,0.000000000000,0.152439024390,  !- X,Y,Z ==> Vertex 1 {m}
    36.536888727945,9.157114969410,0.152439024390,  !- X,Y,Z ==> Vertex 2 {m}
    36.536888727945,9.157114969410,2.743902439024,  !- X,Y,Z ==> Vertex 3 {m}
    36.536888727945,0.000000000000,2.743902439024;  !- X,Y,Z ==> Vertex 4 {m}

  !

  BuildingSurface:Detailed,
    Wall_ldb_1.unit3_FrontRow_BottomFloor,  !- Name
    Wall,                    !- Surface Type
    Exterior Wall,           !- Construction Name
    living_unit3_FrontRow_BottomFloor,  !- Zone Name
    ,                        !- Space Name
    Outdoors,                !- Outside Boundary Condition
    ,                        !- Outside Boundary Condition Object
    SunExposed,              !- Sun Exposure
    WindExposed,             !- Wind Exposure
    ,                        !- View Factor to Ground
    4,                       !- Number of Vertices
    36.536888727945,9.157114969410,0.152439024390,  !- X,Y,Z ==> Vertex 1 {m}
    24.357925818630,9.157114969410,0.152439024390,  !- X,Y,Z ==> Vertex 2 {m}
    24.357925818630,9.157114969410,2.743902439024,  !- X,Y,Z ==> Vertex 3 {m}
    36.536888727945,9.157114969410,2.743902439024;  !- X,Y,Z ==> Vertex 4 {m}

  !

  BuildingSurface:Detailed,
    Wall_sdl_1.unit3_FrontRow_BottomFloor,  !- Name
    Wall,                    !- Surface Type
    interiorwall,            !- Construction Name
    living_unit3_FrontRow_BottomFloor,  !- Zone Name
    ,                        !- Space Name
    Surface,                 !- Outside Boundary Condition
    Wall_sdr_1.unit2_FrontRow_BottomFloor,  !- Outside Boundary Condition Object
    NoSun,                   !- Sun Exposure
    NoWind,                  !- Wind Exposure
    0.0,                     !- View Factor to Ground
    4,                       !- Number of Vertices
    24.357925818630,9.157114969410,0.152439024390,  !- X,Y,Z ==> Vertex 1 {m}
    24.357925818630,0.000000000000,0.152439024390,  !- X,Y,Z ==> Vertex 2 {m}
    24.357925818630,0.000000000000,2.743902439024,  !- X,Y,Z ==> Vertex 3 {m}
    24.357925818630,9.157114969410,2.743902439024;  !- X,Y,Z ==> Vertex 4 {m}

  !

  BuildingSurface:Detailed,
    Wall_ldf_1.unit1_BackRow_BottomFloor,  !- Name
    Wall,                    !- Surface Type
    Exterior Wall,           !- Construction Name
    living_unit1_BackRow_BottomFloor,  !- Zone Name
    ,                        !- Space Name
    Outdoors,                !- Outside Boundary Condition
    ,                        !- Outside Boundary Condition Object
    SunExposed,              !- Sun Exposure
    WindExposed,             !- Wind Exposure
    ,                        !- View Factor to Ground
    4,                       !- Number of Vertices
    0.000000000000,10.681505213312,0.152439024390,  !- X,Y,Z ==> Vertex 1 {m}
    12.178962909315,10.681505213312,0.152439024390,  !- X,Y,Z ==> Vertex 2 {m}
    12.178962909315,10.681505213312,2.743902439024,  !- X,Y,Z ==> Vertex 3 {m}
    0.000000000000,10.681505213312,2.743902439024;  !- X,Y,Z ==> Vertex 4 {m}

  !

  BuildingSurface:Detailed,
    Wall_sdr_1.unit1_BackRow_BottomFloor,  !- Name
    Wall,                    !- Surface Type
    interiorwall,            !- Construction Name
    living_unit1_BackRow_BottomFloor,  !- Zone Name
    ,                        !- Space Name
    Surface,                 !- Outside Boundary Condition
    Wall_sdl_1.unit2_BackRow_BottomFloor,  !- Outside Boundary Condition Object
    NoSun,                   !- Sun Exposure
    NoWind,                  !- Wind Exposure
    0.0,                     !- View Factor to Ground
    4,                       !- Number of Vertices
    12.178962909315,10.681505213312,0.152439024390,  !- X,Y,Z ==> Vertex 1 {m}
    12.178962909315,19.838620182722,0.152439024390,  !- X,Y,Z ==> Vertex 2 {m}
    12.178962909315,19.838620182722,2.743902439024,  !- X,Y,Z ==> Vertex 3 {m}
    12.178962909315,10.681505213312,2.743902439024;  !- X,Y,Z ==> Vertex 4 {m}

  !

  BuildingSurface:Detailed,
    Wall_ldb_1.unit1_BackRow_BottomFloor,  !- Name
    Wall,                    !- Surface Type
    Exterior Wall,           !- Construction Name
    living_unit1_BackRow_BottomFloor,  !- Zone Name
    ,                        !- Space Name
    Outdoors,                !- Outside Boundary Condition
    ,                        !- Outside Boundary Condition Object
    SunExposed,              !- Sun Exposure
    WindExposed,             !- Wind Exposure
    ,                        !- View Factor to Ground
    4,                       !- Number of Vertices
    12.178962909315,19.838620182722,0.152439024390,  !- X,Y,Z ==> Vertex 1 {m}
    0.000000000000,19.838620182722,0.152439024390,  !- X,Y,Z ==> Vertex 2 {m}
    0.000000000000,19.838620182722,2.743902439024,  !- X,Y,Z ==> Vertex 3 {m}
    12.178962909315,19.838620182722,2.743902439024;  !- X,Y,Z ==> Vertex 4 {m}

  !

  BuildingSurface:Detailed,
    Wall_sdl_1.unit1_BackRow_BottomFloor,  !- Name
    Wall,                    !- Surface Type
    Exterior Wall,           !- Construction Name
    living_unit1_BackRow_BottomFloor,  !- Zone Name
    ,                        !- Space Name
    Outdoors,                !- Outside Boundary Condition
    ,                        !- Outside Boundary Condition Object
    SunExposed,              !- Sun Exposure
    WindExposed,             !- Wind Exposure
    ,                        !- View Factor to Ground
    4,                       !- Number of Vertices
    0.000000000000,19.838620182722,0.152439024390,  !- X,Y,Z ==> Vertex 1 {m}
    0.000000000000,10.681505213312,0.152439024390,  !- X,Y,Z ==> Vertex 2 {m}
    0.000000000000,10.681505213312,2.743902439024,  !- X,Y,Z ==> Vertex 3 {m}
    0.000000000000,19.838620182722,2.743902439024;  !- X,Y,Z ==> Vertex 4 {m}

  !

  BuildingSurface:Detailed,
    Wall_ldf_1.unit2_BackRow_BottomFloor,  !- Name
    Wall,                    !- Surface Type
    Exterior Wall,           !- Construction Name
    living_unit2_BackRow_BottomFloor,  !- Zone Name
    ,                        !- Space Name
    Outdoors,                !- Outside Boundary Condition
    ,                        !- Outside Boundary Condition Object
    SunExposed,              !- Sun Exposure
    WindExposed,             !- Wind Exposure